  
       XFOIL         Version 6.99
  
 Calculated polar for: NACA 0012                                       
  
 1 1 Reynolds number fixed          Mach number fixed         
  
 xtrf =   1.000 (top)        1.000 (bottom)  
 Mach =   0.100     Re =     0.350 e 6     Ncrit =   9.000
  
   alpha    CL        CD       CDp       CM     Top_Xtr  Bot_Xtr
  ------ -------- --------- --------- -------- -------- --------
   0.000   0.0000   0.00710   0.00272  -0.0000   0.8368   0.8369
   0.500   0.0515   0.00718   0.00275   0.0022   0.7918   0.8765
   0.750   0.0776   0.00726   0.00280   0.0032   0.7670   0.8938
   1.000   0.1039   0.00739   0.00285   0.0041   0.7416   0.9098
   1.250   0.1307   0.00753   0.00292   0.0049   0.7147   0.9246
   1.500   0.1605   0.00772   0.00301   0.0050   0.6870   0.9360
   1.750   0.1918   0.00793   0.00310   0.0048   0.6578   0.9460
   2.000   0.2225   0.00813   0.00319   0.0045   0.6275   0.9565
   2.250   0.2605   0.00837   0.00330   0.0027   0.5946   0.9621
   2.500   0.2948   0.00860   0.00341   0.0015   0.5618   0.9703
   2.750   0.3366   0.00885   0.00352  -0.0013   0.5256   0.9737
   3.000   0.3754   0.00911   0.00363  -0.0036   0.4894   0.9791
   3.250   0.4133   0.00935   0.00374  -0.0057   0.4524   0.9844
   3.500   0.4535   0.00961   0.00385  -0.0084   0.4133   0.9886
   3.750   0.4913   0.00991   0.00399  -0.0107   0.3746   0.9937
   4.000   0.5317   0.01018   0.00411  -0.0135   0.3340   0.9973
   4.250   0.5666   0.01049   0.00426  -0.0152   0.2952   1.0000
   4.500   0.5892   0.01075   0.00438  -0.0144   0.2632   1.0000
   4.750   0.6111   0.01104   0.00455  -0.0135   0.2323   1.0000
   5.000   0.6327   0.01137   0.00474  -0.0124   0.2029   1.0000
   5.250   0.6540   0.01172   0.00498  -0.0113   0.1759   1.0000
   5.750   0.6954   0.01251   0.00555  -0.0089   0.1316   1.0000
   6.000   0.7158   0.01293   0.00589  -0.0075   0.1149   1.0000
   6.250   0.7360   0.01336   0.00626  -0.0061   0.1016   1.0000
   6.500   0.7561   0.01381   0.00667  -0.0047   0.0910   1.0000
   6.750   0.7755   0.01433   0.00714  -0.0031   0.0822   1.0000
   7.000   0.7956   0.01478   0.00757  -0.0017   0.0752   1.0000
   7.250   0.8152   0.01531   0.00811  -0.0002   0.0693   1.0000
   7.500   0.8346   0.01584   0.00861   0.0013   0.0642   1.0000
   7.750   0.8539   0.01642   0.00923   0.0029   0.0600   1.0000
   8.000   0.8739   0.01692   0.00974   0.0043   0.0564   1.0000
   8.250   0.8911   0.01775   0.01056   0.0061   0.0531   1.0000
   8.500   0.9120   0.01824   0.01111   0.0074   0.0502   1.0000
   8.750   0.9316   0.01886   0.01174   0.0087   0.0476   1.0000
   9.000   0.9485   0.01989   0.01277   0.0104   0.0455   1.0000
   9.250   0.9691   0.02049   0.01347   0.0116   0.0435   1.0000
   9.500   0.9889   0.02114   0.01415   0.0128   0.0415   1.0000
   9.750   1.0060   0.02218   0.01516   0.0142   0.0397   1.0000
  10.000   1.0243   0.02314   0.01623   0.0156   0.0383   1.0000
  10.100   1.0319   0.02347   0.01661   0.0161   0.0378   1.0000
  10.200   1.0393   0.02381   0.01700   0.0167   0.0372   1.0000
  10.300   1.0466   0.02416   0.01738   0.0172   0.0367   1.0000
  10.400   1.0538   0.02451   0.01776   0.0177   0.0361   1.0000
  10.500   1.0609   0.02485   0.01812   0.0182   0.0356   1.0000
  10.600   1.0680   0.02520   0.01849   0.0187   0.0352   1.0000
  10.700   1.0748   0.02557   0.01886   0.0192   0.0347   1.0000
  10.800   1.0812   0.02602   0.01930   0.0198   0.0343   1.0000
  10.900   1.0869   0.02671   0.01999   0.0204   0.0338   1.0000
  11.000   1.0924   0.02743   0.02075   0.0210   0.0333   1.0000
  11.100   1.0986   0.02776   0.02117   0.0216   0.0330   1.0000
  11.200   1.1046   0.02815   0.02163   0.0223   0.0326   1.0000
  11.300   1.1103   0.02858   0.02212   0.0229   0.0322   1.0000
  11.400   1.1159   0.02902   0.02262   0.0235   0.0318   1.0000
  11.500   1.1213   0.02949   0.02314   0.0242   0.0314   1.0000
  11.600   1.1263   0.02997   0.02367   0.0249   0.0311   1.0000
  11.700   1.1307   0.03044   0.02418   0.0257   0.0307   1.0000
  11.800   1.1348   0.03090   0.02470   0.0265   0.0304   1.0000
  11.900   1.1387   0.03137   0.02520   0.0273   0.0302   1.0000
  12.000   1.1425   0.03184   0.02569   0.0281   0.0299   1.0000
  12.100   1.1463   0.03234   0.02622   0.0289   0.0297   1.0000
  12.200   1.1500   0.03285   0.02675   0.0296   0.0294   1.0000
  12.300   1.1537   0.03343   0.02734   0.0303   0.0292   1.0000
  12.400   1.1572   0.03411   0.02804   0.0309   0.0289   1.0000
  12.500   1.1601   0.03499   0.02894   0.0315   0.0287   1.0000
  12.600   1.1614   0.03628   0.03029   0.0322   0.0284   1.0000
  12.700   1.1616   0.03691   0.03101   0.0331   0.0283   1.0000
  12.800   1.1616   0.03761   0.03181   0.0339   0.0281   1.0000
  12.900   1.1613   0.03839   0.03267   0.0347   0.0280   1.0000
  13.000   1.1607   0.03922   0.03360   0.0353   0.0278   1.0000
  13.100   1.1598   0.04011   0.03458   0.0359   0.0276   1.0000
  13.200   1.1587   0.04106   0.03563   0.0364   0.0274   1.0000
  13.300   1.1573   0.04207   0.03672   0.0368   0.0273   1.0000
  13.400   1.1558   0.04312   0.03785   0.0371   0.0271   1.0000
  13.500   1.1540   0.04422   0.03904   0.0373   0.0269   1.0000
  13.600   1.1521   0.04539   0.04030   0.0374   0.0268   1.0000
  13.700   1.1500   0.04660   0.04158   0.0374   0.0266   1.0000
  13.800   1.1476   0.04787   0.04293   0.0374   0.0264   1.0000
  13.900   1.1452   0.04920   0.04432   0.0372   0.0263   1.0000
  14.000   1.1429   0.05054   0.04574   0.0369   0.0262   1.0000
  14.100   1.1401   0.05199   0.04725   0.0365   0.0260   1.0000
  14.200   1.1370   0.05351   0.04884   0.0360   0.0259   1.0000
  14.300   1.1341   0.05505   0.05044   0.0355   0.0258   1.0000
  14.400   1.1306   0.05671   0.05217   0.0348   0.0257   1.0000
  14.500   1.1269   0.05845   0.05397   0.0341   0.0256   1.0000
  14.600   1.1223   0.06033   0.05592   0.0332   0.0255   1.0000
  14.700   1.1168   0.06241   0.05808   0.0321   0.0255   1.0000
  14.800   1.1109   0.06461   0.06034   0.0309   0.0254   1.0000
  14.900   1.1044   0.06696   0.06277   0.0296   0.0254   1.0000
  15.000   1.0968   0.06952   0.06541   0.0281   0.0254   1.0000
  15.100   1.0884   0.07226   0.06824   0.0264   0.0253   1.0000
  15.200   1.0787   0.07531   0.07137   0.0245   0.0254   1.0000
  15.300   1.0673   0.07875   0.07491   0.0223   0.0254   1.0000
  15.400   1.0501   0.08334   0.07963   0.0192   0.0255   1.0000
  15.500   1.0252   0.08962   0.08607   0.0149   0.0257   1.0000
  15.600   0.9792   0.10075   0.09743   0.0072   0.0263   1.0000
  15.700   0.8346   0.13714   0.13416  -0.0146   0.0286   1.0000
  15.800   0.8375   0.13774   0.13474  -0.0147   0.0284   1.0000
  15.900   0.5233   0.15648   0.15370  -0.0063   0.0458   1.0000
  16.000   0.5029   0.15981   0.15702  -0.0101   0.0438   1.0000
  16.100   0.5027   0.16097   0.15818  -0.0107   0.0429   1.0000
  16.200   0.5036   0.16197   0.15919  -0.0112   0.0423   1.0000
  16.300   0.5048   0.16291   0.16012  -0.0116   0.0417   1.0000
  16.400   0.5065   0.16381   0.16102  -0.0119   0.0413   1.0000
  16.500   0.5085   0.16465   0.16187  -0.0122   0.0410   1.0000
  16.600   0.5109   0.16543   0.16266  -0.0124   0.0406   1.0000
  16.700   0.5139   0.16616   0.16339  -0.0125   0.0403   1.0000
  16.800   0.5175   0.16688   0.16411  -0.0126   0.0401   1.0000
  16.900   0.5219   0.16756   0.16480  -0.0125   0.0399   1.0000
  17.000   0.5272   0.16825   0.16549  -0.0123   0.0397   1.0000
  17.100   0.5326   0.16903   0.16627  -0.0120   0.0395   1.0000
  17.200   0.5372   0.17042   0.16766  -0.0116   0.0393   1.0000
  17.300   0.5339   0.17206   0.16930  -0.0127   0.0392   1.0000
  17.400   0.5285   0.17378   0.17102  -0.0142   0.0391   1.0000
  17.500   0.5134   0.17623   0.17347  -0.0174   0.0379   1.0000
  17.600   0.5134   0.17747   0.17472  -0.0181   0.0371   1.0000
  17.700   0.5144   0.17855   0.17580  -0.0186   0.0365   1.0000
  17.800   0.5158   0.17955   0.17679  -0.0191   0.0359   1.0000
  17.900   0.5175   0.18046   0.17771  -0.0195   0.0354   1.0000
  18.000   0.5196   0.18131   0.17857  -0.0198   0.0350   1.0000
  18.100   0.5221   0.18209   0.17935  -0.0201   0.0347   1.0000
  18.200   0.5250   0.18283   0.18009  -0.0203   0.0344   1.0000
  18.300   0.5284   0.18353   0.18079  -0.0204   0.0341   1.0000
  18.400   0.5327   0.18422   0.18149  -0.0203   0.0339   1.0000
  18.500   0.5380   0.18502   0.18229  -0.0201   0.0337   1.0000
  18.600   0.5444   0.18602   0.18330  -0.0197   0.0336   1.0000
  18.700   0.5470   0.18758   0.18486  -0.0199   0.0334   1.0000
  18.800   0.5437   0.18902   0.18629  -0.0211   0.0334   1.0000
  18.900   0.5344   0.19069   0.18796  -0.0233   0.0331   1.0000
  19.000   0.5299   0.19256   0.18983  -0.0249   0.0320   1.0000
  19.100   0.5308   0.19373   0.19100  -0.0255   0.0314   1.0000
  19.200   0.5321   0.19480   0.19208  -0.0260   0.0310   1.0000
  19.300   0.5336   0.19582   0.19311  -0.0265   0.0305   1.0000
  19.400   0.5352   0.19681   0.19409  -0.0269   0.0302   1.0000
  19.500   0.5371   0.19775   0.19504  -0.0274   0.0299   1.0000
  19.600   0.5390   0.19866   0.19596  -0.0278   0.0296   1.0000
  19.700   0.5411   0.19955   0.19685  -0.0281   0.0293   1.0000
  19.800   0.5435   0.20041   0.19771  -0.0284   0.0291   1.0000
  19.900   0.5461   0.20125   0.19855  -0.0287   0.0290   1.0000
  20.000   0.5490   0.20210   0.19941  -0.0289   0.0288   1.0000
  -0.250  -0.0256   0.00712   0.00273  -0.0011   0.8579   0.8147
  -0.500  -0.0514   0.00718   0.00275  -0.0022   0.8765   0.7918
  -0.750  -0.0776   0.00726   0.00280  -0.0032   0.8938   0.7670
  -1.000  -0.1039   0.00739   0.00285  -0.0041   0.9098   0.7417
  -1.250  -0.1307   0.00753   0.00292  -0.0049   0.9246   0.7148
  -1.500  -0.1605   0.00772   0.00301  -0.0050   0.9360   0.6870
  -1.750  -0.1918   0.00793   0.00310  -0.0048   0.9460   0.6578
  -2.000  -0.2225   0.00813   0.00319  -0.0045   0.9565   0.6275
  -2.250  -0.2605   0.00837   0.00331  -0.0027   0.9621   0.5946
  -2.500  -0.2948   0.00860   0.00342  -0.0015   0.9703   0.5619
  -2.750  -0.3366   0.00885   0.00352   0.0013   0.9737   0.5256
  -3.000  -0.3754   0.00911   0.00363   0.0036   0.9790   0.4894
  -3.250  -0.4133   0.00936   0.00374   0.0057   0.9844   0.4524
  -3.500  -0.4535   0.00961   0.00385   0.0084   0.9886   0.4134
  -3.750  -0.4914   0.00991   0.00399   0.0107   0.9937   0.3748
  -4.000  -0.5317   0.01018   0.00411   0.0135   0.9972   0.3340
  -4.250  -0.5666   0.01049   0.00426   0.0152   1.0000   0.2953
  -4.500  -0.5892   0.01075   0.00439   0.0144   1.0000   0.2632
  -4.750  -0.6112   0.01105   0.00455   0.0135   1.0000   0.2322
  -5.000  -0.6328   0.01137   0.00474   0.0125   1.0000   0.2028
  -5.250  -0.6540   0.01173   0.00498   0.0114   1.0000   0.1759
  -5.500  -0.6747   0.01214   0.00525   0.0101   1.0000   0.1517
  -5.750  -0.6955   0.01251   0.00555   0.0089   1.0000   0.1316
  -6.000  -0.7159   0.01293   0.00589   0.0075   1.0000   0.1149
  -6.250  -0.7361   0.01336   0.00626   0.0061   1.0000   0.1016
  -6.500  -0.7561   0.01381   0.00667   0.0047   1.0000   0.0910
  -6.750  -0.7755   0.01433   0.00714   0.0032   1.0000   0.0822
  -7.000  -0.7956   0.01478   0.00757   0.0017   1.0000   0.0752
  -7.250  -0.8152   0.01531   0.00811   0.0002   1.0000   0.0693
  -7.500  -0.8346   0.01585   0.00862  -0.0013   1.0000   0.0642
  -7.750  -0.8539   0.01642   0.00923  -0.0029   1.0000   0.0600
  -8.000  -0.8739   0.01693   0.00975  -0.0043   1.0000   0.0564
  -8.250  -0.8911   0.01775   0.01056  -0.0061   1.0000   0.0531
  -8.500  -0.9120   0.01824   0.01111  -0.0074   1.0000   0.0502
  -8.750  -0.9316   0.01886   0.01174  -0.0087   1.0000   0.0477
  -9.000  -0.9484   0.01989   0.01277  -0.0104   1.0000   0.0455
  -9.250  -0.9690   0.02049   0.01347  -0.0116   1.0000   0.0435
  -9.500  -0.9888   0.02114   0.01415  -0.0128   1.0000   0.0415
  -9.750  -1.0060   0.02217   0.01515  -0.0142   1.0000   0.0397
 -10.000  -1.0242   0.02314   0.01623  -0.0156   1.0000   0.0383
 -10.100  -1.0317   0.02347   0.01661  -0.0162   1.0000   0.0378
 -10.200  -1.0391   0.02381   0.01700  -0.0167   1.0000   0.0372
 -10.300  -1.0464   0.02416   0.01739  -0.0172   1.0000   0.0367
 -10.400  -1.0536   0.02451   0.01776  -0.0177   1.0000   0.0362
 -10.500  -1.0608   0.02485   0.01812  -0.0183   1.0000   0.0357
 -10.600  -1.0678   0.02519   0.01848  -0.0188   1.0000   0.0352
 -10.700  -1.0746   0.02557   0.01885  -0.0193   1.0000   0.0347
 -10.800  -1.0810   0.02602   0.01930  -0.0198   1.0000   0.0343
 -10.900  -1.0867   0.02670   0.01998  -0.0204   1.0000   0.0338
 -11.000  -1.0921   0.02742   0.02074  -0.0210   1.0000   0.0333
 -11.100  -1.0983   0.02776   0.02116  -0.0217   1.0000   0.0330
 -11.200  -1.1043   0.02815   0.02162  -0.0223   1.0000   0.0326
 -11.300  -1.1101   0.02857   0.02211  -0.0230   1.0000   0.0322
 -11.400  -1.1156   0.02902   0.02262  -0.0236   1.0000   0.0318
 -11.500  -1.1210   0.02948   0.02314  -0.0243   1.0000   0.0314
 -11.600  -1.1260   0.02997   0.02367  -0.0250   1.0000   0.0311
 -11.700  -1.1303   0.03043   0.02418  -0.0257   1.0000   0.0308
 -11.800  -1.1344   0.03090   0.02469  -0.0266   1.0000   0.0305
 -11.900  -1.1382   0.03136   0.02519  -0.0274   1.0000   0.0302
 -12.000  -1.1420   0.03184   0.02569  -0.0282   1.0000   0.0299
 -12.100  -1.1457   0.03233   0.02621  -0.0289   1.0000   0.0297
 -12.200  -1.1495   0.03285   0.02675  -0.0297   1.0000   0.0294
 -12.300  -1.1531   0.03342   0.02734  -0.0304   1.0000   0.0292
 -12.400  -1.1566   0.03409   0.02802  -0.0310   1.0000   0.0289
 -12.500  -1.1595   0.03497   0.02892  -0.0316   1.0000   0.0287
 -12.600  -1.1609   0.03627   0.03027  -0.0323   1.0000   0.0284
 -12.700  -1.1611   0.03691   0.03100  -0.0332   1.0000   0.0283
 -12.800  -1.1610   0.03762   0.03181  -0.0340   1.0000   0.0281
 -12.900  -1.1607   0.03838   0.03266  -0.0348   1.0000   0.0280
 -13.000  -1.1601   0.03921   0.03359  -0.0354   1.0000   0.0278
 -13.100  -1.1592   0.04011   0.03458  -0.0360   1.0000   0.0276
 -13.200  -1.1580   0.04105   0.03561  -0.0365   1.0000   0.0275
 -13.300  -1.1566   0.04207   0.03672  -0.0369   1.0000   0.0273
 -13.400  -1.1550   0.04311   0.03784  -0.0372   1.0000   0.0271
 -13.500  -1.1532   0.04423   0.03904  -0.0375   1.0000   0.0269
 -13.600  -1.1512   0.04539   0.04029  -0.0376   1.0000   0.0268
 -13.700  -1.1489   0.04662   0.04161  -0.0376   1.0000   0.0266
 -13.800  -1.1467   0.04787   0.04292  -0.0375   1.0000   0.0265
 -13.900  -1.1442   0.04920   0.04432  -0.0373   1.0000   0.0263
 -14.000  -1.1416   0.05058   0.04578  -0.0371   1.0000   0.0262
 -14.100  -1.1385   0.05207   0.04733  -0.0367   1.0000   0.0261
 -14.200  -1.1358   0.05352   0.04885  -0.0362   1.0000   0.0259
 -14.300  -1.1323   0.05515   0.05055  -0.0356   1.0000   0.0258
 -14.400  -1.1289   0.05680   0.05226  -0.0350   1.0000   0.0257
 -14.500  -1.1250   0.05855   0.05407  -0.0342   1.0000   0.0256
 -14.600  -1.1207   0.06040   0.05599  -0.0334   1.0000   0.0256
 -14.700  -1.1153   0.06245   0.05811  -0.0323   1.0000   0.0255
 -14.800  -1.1092   0.06467   0.06041  -0.0311   1.0000   0.0255
 -14.900  -1.1027   0.06701   0.06283  -0.0298   1.0000   0.0254
 -15.000  -1.0952   0.06955   0.06544  -0.0283   1.0000   0.0254
 -15.100  -1.0870   0.07227   0.06824  -0.0267   1.0000   0.0254
 -15.200  -1.0774   0.07529   0.07135  -0.0248   1.0000   0.0254
 -15.300  -1.0651   0.07888   0.07504  -0.0225   1.0000   0.0254
 -15.400  -1.0470   0.08363   0.07992  -0.0193   1.0000   0.0255
 -15.500  -1.0200   0.09033   0.08679  -0.0146   1.0000   0.0258
 -15.600  -0.9792   0.10037   0.09704  -0.0077   1.0000   0.0263
 -15.700  -0.8343   0.13676   0.13378   0.0141   1.0000   0.0287
 -15.800  -0.8370   0.13748   0.13449   0.0144   1.0000   0.0285
