  
       XFOIL         Version 6.99
  
 Calculated polar for: NACA 2412                                       
  
 1 1 Reynolds number fixed          Mach number fixed         
  
 xtrf =   1.000 (top)        1.000 (bottom)  
 Mach =   0.100     Re =     1.000 e 6     Ncrit =   9.000
  
   alpha    CL        CD       CDp       CM     Top_Xtr  Bot_Xtr
  ------ -------- --------- --------- -------- -------- --------
   0.000   0.2384   0.00569   0.00123  -0.0522   0.6488   0.6752
   0.000   0.2384   0.00569   0.00123  -0.0522   0.6488   0.6752
   0.250   0.2651   0.00562   0.00126  -0.0518   0.6320   0.7231
   0.500   0.2916   0.00558   0.00129  -0.0514   0.6152   0.7697
   0.750   0.3176   0.00553   0.00134  -0.0508   0.5990   0.8147
   1.000   0.3435   0.00552   0.00140  -0.0501   0.5831   0.8571
   1.250   0.3690   0.00554   0.00147  -0.0492   0.5676   0.8940
   1.500   0.3947   0.00559   0.00154  -0.0485   0.5526   0.9250
   1.750   0.4221   0.00568   0.00161  -0.0480   0.5378   0.9491
   2.000   0.4524   0.00580   0.00168  -0.0484   0.5229   0.9662
   2.250   0.4860   0.00593   0.00175  -0.0494   0.5081   0.9773
   2.500   0.5206   0.00607   0.00183  -0.0508   0.4932   0.9853
   2.750   0.5581   0.00622   0.00191  -0.0529   0.4776   0.9901
   3.000   0.5949   0.00637   0.00200  -0.0548   0.4617   0.9944
   3.250   0.6334   0.00652   0.00208  -0.0571   0.4453   0.9973
   3.500   0.6708   0.00668   0.00217  -0.0592   0.4279   1.0000
   3.750   0.6949   0.00681   0.00225  -0.0583   0.4124   1.0000
   4.000   0.7190   0.00696   0.00233  -0.0575   0.3955   1.0000
   4.250   0.7429   0.00713   0.00243  -0.0567   0.3766   1.0000
   4.500   0.7666   0.00733   0.00255  -0.0558   0.3562   1.0000
   4.750   0.7903   0.00756   0.00268  -0.0549   0.3349   1.0000
   5.000   0.8139   0.00780   0.00283  -0.0540   0.3114   1.0000
   5.250   0.8371   0.00809   0.00300  -0.0531   0.2873   1.0000
   5.500   0.8603   0.00841   0.00320  -0.0521   0.2610   1.0000
   5.750   0.8836   0.00874   0.00342  -0.0513   0.2345   1.0000
   6.000   0.9069   0.00912   0.00367  -0.0504   0.2078   1.0000
   6.250   0.9299   0.00953   0.00394  -0.0496   0.1812   1.0000
   6.500   0.9531   0.00995   0.00423  -0.0487   0.1562   1.0000
   6.750   0.9765   0.01036   0.00453  -0.0479   0.1345   1.0000
   7.000   0.9995   0.01081   0.00486  -0.0471   0.1139   1.0000
   7.250   1.0230   0.01122   0.00519  -0.0464   0.0979   1.0000
   7.500   1.0465   0.01162   0.00552  -0.0456   0.0844   1.0000
   7.750   1.0699   0.01203   0.00588  -0.0449   0.0730   1.0000
   8.000   1.0932   0.01245   0.00624  -0.0441   0.0640   1.0000
   8.250   1.1161   0.01289   0.00663  -0.0433   0.0563   1.0000
   8.500   1.1397   0.01326   0.00699  -0.0425   0.0510   1.0000
   8.750   1.1626   0.01367   0.00739  -0.0417   0.0462   1.0000
   9.000   1.1850   0.01412   0.00782  -0.0408   0.0420   1.0000
   9.250   1.2078   0.01452   0.00824  -0.0400   0.0390   1.0000
   9.500   1.2296   0.01499   0.00869  -0.0391   0.0360   1.0000
   9.750   1.2511   0.01545   0.00917  -0.0380   0.0336   1.0000
  10.000   1.2728   0.01589   0.00962  -0.0371   0.0316   1.0000
  10.000   1.2728   0.01589   0.00962  -0.0371   0.0316   1.0000
  10.100   1.2808   0.01610   0.00983  -0.0366   0.0308   1.0000
  10.200   1.2883   0.01635   0.01009  -0.0360   0.0299   1.0000
  10.300   1.2956   0.01661   0.01036  -0.0354   0.0291   1.0000
  10.400   1.3042   0.01677   0.01054  -0.0351   0.0287   1.0000
  10.500   1.3126   0.01694   0.01073  -0.0346   0.0282   1.0000
  10.600   1.3207   0.01712   0.01092  -0.0342   0.0277   1.0000
  10.700   1.3286   0.01732   0.01113  -0.0337   0.0271   1.0000
  10.800   1.3362   0.01753   0.01135  -0.0331   0.0266   1.0000
  10.900   1.3433   0.01776   0.01159  -0.0325   0.0261   1.0000
  11.000   1.3495   0.01803   0.01186  -0.0318   0.0255   1.0000
  11.100   1.3538   0.01837   0.01221  -0.0307   0.0248   1.0000
  11.200   1.3600   0.01860   0.01246  -0.0299   0.0245   1.0000
  11.300   1.3670   0.01878   0.01266  -0.0293   0.0242   1.0000
  11.400   1.3738   0.01898   0.01289  -0.0286   0.0238   1.0000
  11.500   1.3802   0.01920   0.01312  -0.0279   0.0235   1.0000
  11.600   1.3866   0.01943   0.01337  -0.0272   0.0231   1.0000
  11.700   1.3928   0.01967   0.01362  -0.0265   0.0227   1.0000
  11.800   1.3986   0.01993   0.01390  -0.0258   0.0224   1.0000
  11.900   1.4042   0.02021   0.01420  -0.0250   0.0221   1.0000
  12.000   1.4093   0.02052   0.01452  -0.0242   0.0217   1.0000
  12.100   1.4137   0.02088   0.01489  -0.0234   0.0214   1.0000
  12.200   1.4169   0.02132   0.01535  -0.0224   0.0210   1.0000
  12.300   1.4191   0.02182   0.01588  -0.0213   0.0206   1.0000
  12.400   1.4252   0.02210   0.01618  -0.0207   0.0205   1.0000
  12.500   1.4310   0.02239   0.01650  -0.0200   0.0203   1.0000
  12.600   1.4364   0.02270   0.01684  -0.0194   0.0201   1.0000
  12.700   1.4417   0.02303   0.01720  -0.0187   0.0198   1.0000
  12.800   1.4467   0.02339   0.01759  -0.0181   0.0196   1.0000
  12.900   1.4515   0.02376   0.01798  -0.0174   0.0194   1.0000
  13.000   1.4563   0.02414   0.01838  -0.0168   0.0192   1.0000
  13.100   1.4609   0.02454   0.01880  -0.0162   0.0189   1.0000
  13.200   1.4655   0.02494   0.01922  -0.0156   0.0187   1.0000
  13.300   1.4697   0.02538   0.01969  -0.0149   0.0185   1.0000
  13.400   1.4736   0.02585   0.02017  -0.0143   0.0183   1.0000
  13.500   1.4769   0.02637   0.02071  -0.0137   0.0181   1.0000
  13.600   1.4795   0.02695   0.02131  -0.0130   0.0178   1.0000
  13.700   1.4810   0.02763   0.02202  -0.0123   0.0176   1.0000
  13.800   1.4806   0.02848   0.02290  -0.0115   0.0173   1.0000
  13.900   1.4801   0.02936   0.02382  -0.0108   0.0171   1.0000
  14.000   1.4845   0.02985   0.02435  -0.0104   0.0170   1.0000
  14.100   1.4886   0.03038   0.02491  -0.0100   0.0169   1.0000
  14.200   1.4921   0.03097   0.02553  -0.0096   0.0168   1.0000
  14.300   1.4954   0.03159   0.02619  -0.0092   0.0167   1.0000
  14.400   1.4983   0.03225   0.02688  -0.0088   0.0165   1.0000
  14.500   1.5008   0.03296   0.02763  -0.0084   0.0164   1.0000
  14.600   1.5033   0.03368   0.02838  -0.0081   0.0163   1.0000
  14.700   1.5055   0.03444   0.02918  -0.0078   0.0161   1.0000
  14.800   1.5075   0.03523   0.03000  -0.0075   0.0160   1.0000
  14.900   1.5095   0.03604   0.03084  -0.0072   0.0159   1.0000
  15.000   1.5113   0.03688   0.03172  -0.0070   0.0157   1.0000
  15.100   1.5127   0.03778   0.03264  -0.0068   0.0156   1.0000
  15.200   1.5141   0.03869   0.03359  -0.0067   0.0155   1.0000
  15.300   1.5153   0.03963   0.03456  -0.0065   0.0154   1.0000
  15.400   1.5160   0.04065   0.03561  -0.0064   0.0153   1.0000
  15.500   1.5166   0.04167   0.03667  -0.0063   0.0152   1.0000
  15.600   1.5167   0.04277   0.03781  -0.0063   0.0151   1.0000
  15.700   1.5163   0.04395   0.03902  -0.0063   0.0150   1.0000
  15.800   1.5155   0.04519   0.04029  -0.0063   0.0149   1.0000
  15.900   1.5141   0.04652   0.04166  -0.0064   0.0148   1.0000
  16.000   1.5121   0.04794   0.04312  -0.0065   0.0147   1.0000
  16.100   1.5093   0.04947   0.04469  -0.0067   0.0146   1.0000
  16.200   1.5062   0.05106   0.04632  -0.0069   0.0145   1.0000
  16.300   1.5017   0.05284   0.04814  -0.0072   0.0144   1.0000
  16.400   1.4968   0.05471   0.05006  -0.0076   0.0143   1.0000
  16.500   1.4914   0.05666   0.05206  -0.0080   0.0142   1.0000
  16.600   1.4845   0.05884   0.05429  -0.0085   0.0141   1.0000
  16.700   1.4818   0.06052   0.05601  -0.0089   0.0141   1.0000
  16.800   1.4799   0.06209   0.05762  -0.0093   0.0140   1.0000
  16.900   1.4783   0.06364   0.05922  -0.0097   0.0140   1.0000
  17.000   1.4764   0.06523   0.06086  -0.0101   0.0140   1.0000
  17.100   1.4739   0.06693   0.06260  -0.0106   0.0139   1.0000
  17.200   1.4713   0.06864   0.06436  -0.0111   0.0139   1.0000
  17.300   1.4682   0.07046   0.06622  -0.0116   0.0138   1.0000
  17.400   1.4657   0.07220   0.06801  -0.0122   0.0138   1.0000
  17.500   1.4621   0.07412   0.06997  -0.0128   0.0137   1.0000
  17.600   1.4585   0.07604   0.07193  -0.0134   0.0137   1.0000
  17.700   1.4546   0.07800   0.07394  -0.0141   0.0136   1.0000
  17.800   1.4505   0.08001   0.07599  -0.0148   0.0136   1.0000
  17.900   1.4466   0.08200   0.07803  -0.0155   0.0135   1.0000
  18.000   1.4418   0.08415   0.08022  -0.0163   0.0135   1.0000
  18.100   1.4377   0.08620   0.08232  -0.0170   0.0135   1.0000
  18.200   1.4328   0.08841   0.08457  -0.0178   0.0134   1.0000
  18.300   1.4286   0.09051   0.08671  -0.0186   0.0134   1.0000
  18.400   1.4235   0.09278   0.08903  -0.0195   0.0133   1.0000
  18.500   1.4189   0.09495   0.09124  -0.0204   0.0133   1.0000
  18.600   1.4137   0.09725   0.09359  -0.0213   0.0132   1.0000
  18.700   1.4088   0.09949   0.09587  -0.0222   0.0132   1.0000
  18.800   1.4032   0.10188   0.09830  -0.0232   0.0131   1.0000
  18.900   1.3990   0.10406   0.10052  -0.0241   0.0131   1.0000
  19.000   1.3933   0.10651   0.10302  -0.0252   0.0130   1.0000
  19.100   1.3886   0.10879   0.10534  -0.0262   0.0130   1.0000
  19.200   1.3828   0.11129   0.10788  -0.0273   0.0130   1.0000
  19.300   1.3784   0.11355   0.11017  -0.0283   0.0129   1.0000
  19.400   1.3728   0.11604   0.11271  -0.0294   0.0129   1.0000
  19.500   1.3681   0.11834   0.11504  -0.0305   0.0128   1.0000
  19.600   1.3628   0.12080   0.11755  -0.0317   0.0128   1.0000
  19.700   1.3578   0.12321   0.11999  -0.0328   0.0127   1.0000
  19.800   1.3529   0.12562   0.12244  -0.0340   0.0127   1.0000
  19.900   1.3478   0.12809   0.12494  -0.0352   0.0127   1.0000
  20.000   1.3434   0.13044   0.12733  -0.0364   0.0126   1.0000
  -0.250   0.2117   0.00576   0.00122  -0.0526   0.6659   0.6248
  -0.500   0.1848   0.00586   0.00121  -0.0529   0.6828   0.5721
  -0.750   0.1579   0.00598   0.00122  -0.0532   0.6997   0.5160
  -1.000   0.1310   0.00612   0.00123  -0.0534   0.7165   0.4570
  -1.250   0.1040   0.00628   0.00127  -0.0537   0.7330   0.4016
  -1.500   0.0768   0.00640   0.00131  -0.0539   0.7494   0.3601
  -1.750   0.0493   0.00651   0.00137  -0.0540   0.7650   0.3250
  -2.000   0.0218   0.00662   0.00143  -0.0542   0.7806   0.2927
  -2.500  -0.0333   0.00686   0.00157  -0.0546   0.8099   0.2352
  -2.750  -0.0608   0.00698   0.00166  -0.0548   0.8236   0.2102
  -3.000  -0.0883   0.00711   0.00176  -0.0550   0.8368   0.1866
  -3.250  -0.1158   0.00727   0.00187  -0.0551   0.8491   0.1651
  -3.750  -0.1708   0.00757   0.00212  -0.0556   0.8726   0.1288
  -4.000  -0.1983   0.00774   0.00226  -0.0558   0.8831   0.1137
  -4.250  -0.2257   0.00792   0.00241  -0.0560   0.8938   0.1003
  -4.500  -0.2530   0.00810   0.00258  -0.0563   0.9030   0.0889
  -4.750  -0.2803   0.00830   0.00276  -0.0566   0.9121   0.0793
  -5.000  -0.3073   0.00852   0.00296  -0.0569   0.9209   0.0702
  -5.250  -0.3345   0.00871   0.00315  -0.0572   0.9288   0.0641
  -5.500  -0.3615   0.00893   0.00337  -0.0576   0.9364   0.0584
  -5.750  -0.3882   0.00919   0.00361  -0.0579   0.9436   0.0527
  -6.000  -0.4157   0.00940   0.00384  -0.0582   0.9502   0.0492
  -6.250  -0.4416   0.00970   0.00412  -0.0587   0.9572   0.0450
  -6.500  -0.4708   0.00993   0.00438  -0.0586   0.9619   0.0425
  -6.750  -0.4980   0.01023   0.00466  -0.0589   0.9681   0.0394
  -7.000  -0.5276   0.01054   0.00499  -0.0586   0.9726   0.0370
  -7.250  -0.5602   0.01084   0.00530  -0.0577   0.9759   0.0348
  -7.500  -0.5914   0.01132   0.00578  -0.0569   0.9795   0.0325
  -7.750  -0.6220   0.01159   0.00608  -0.0564   0.9834   0.0311
  -8.000  -0.6578   0.01193   0.00643  -0.0546   0.9843   0.0293
  -8.250  -0.6921   0.01250   0.00702  -0.0531   0.9855   0.0275
  -8.500  -0.7269   0.01284   0.00740  -0.0516   0.9868   0.0265
  -8.750  -0.7607   0.01322   0.00781  -0.0502   0.9884   0.0254
  -9.000  -0.7932   0.01370   0.00831  -0.0491   0.9904   0.0242
  -9.250  -0.8236   0.01437   0.00903  -0.0483   0.9927   0.0232
  -9.500  -0.8561   0.01475   0.00947  -0.0472   0.9942   0.0224
  -9.750  -0.8897   0.01519   0.00994  -0.0458   0.9953   0.0215
 -10.000  -0.9224   0.01569   0.01048  -0.0445   0.9965   0.0208
 -10.100  -0.9350   0.01596   0.01076  -0.0441   0.9971   0.0205
 -10.200  -0.9471   0.01633   0.01115  -0.0436   0.9977   0.0201
 -10.300  -0.9580   0.01689   0.01175  -0.0433   0.9984   0.0197
 -10.400  -0.9709   0.01707   0.01196  -0.0428   0.9989   0.0196
 -10.500  -0.9837   0.01727   0.01220  -0.0424   0.9994   0.0194
 -10.600  -0.9964   0.01750   0.01245  -0.0419   0.9998   0.0192
 -10.700  -1.0057   0.01771   0.01270  -0.0422   1.0000   0.0190
 -10.800  -1.0122   0.01791   0.01293  -0.0430   1.0000   0.0188
 -10.900  -1.0187   0.01812   0.01317  -0.0438   1.0000   0.0187
 -11.000  -1.0251   0.01833   0.01340  -0.0446   1.0000   0.0185
 -11.100  -1.0314   0.01855   0.01364  -0.0454   1.0000   0.0183
 -11.200  -1.0377   0.01876   0.01388  -0.0462   1.0000   0.0182
 -11.300  -1.0439   0.01898   0.01412  -0.0470   1.0000   0.0180
 -11.400  -1.0500   0.01920   0.01436  -0.0479   1.0000   0.0179
 -11.500  -1.0561   0.01943   0.01461  -0.0487   1.0000   0.0177
 -11.600  -1.0622   0.01965   0.01484  -0.0495   1.0000   0.0176
 -11.700  -1.0683   0.01987   0.01509  -0.0504   1.0000   0.0174
 -11.800  -1.0741   0.02012   0.01536  -0.0512   1.0000   0.0173
 -11.900  -1.0795   0.02040   0.01565  -0.0521   1.0000   0.0171
 -12.000  -1.0843   0.02074   0.01601  -0.0530   1.0000   0.0169
 -12.100  -1.0879   0.02117   0.01647  -0.0541   1.0000   0.0167
 -12.200  -1.0896   0.02176   0.01710  -0.0554   1.0000   0.0165
 -12.300  -1.0921   0.02230   0.01769  -0.0565   1.0000   0.0164
 -12.400  -1.0985   0.02254   0.01797  -0.0572   1.0000   0.0163
 -12.500  -1.1046   0.02280   0.01826  -0.0579   1.0000   0.0162
 -12.600  -1.1103   0.02309   0.01859  -0.0587   1.0000   0.0161
 -12.700  -1.1158   0.02341   0.01894  -0.0594   1.0000   0.0160
 -12.800  -1.1212   0.02375   0.01932  -0.0602   1.0000   0.0159
 -12.900  -1.1265   0.02411   0.01972  -0.0609   1.0000   0.0158
 -13.000  -1.1317   0.02448   0.02013  -0.0616   1.0000   0.0157
 -13.100  -1.1368   0.02487   0.02056  -0.0623   1.0000   0.0156
 -13.200  -1.1417   0.02527   0.02101  -0.0629   1.0000   0.0155
 -13.300  -1.1464   0.02569   0.02147  -0.0636   1.0000   0.0154
 -13.400  -1.1509   0.02613   0.02195  -0.0642   1.0000   0.0153
 -13.500  -1.1551   0.02657   0.02243  -0.0649   1.0000   0.0152
 -13.600  -1.1589   0.02704   0.02294  -0.0655   1.0000   0.0151
 -13.700  -1.1615   0.02751   0.02345  -0.0664   1.0000   0.0150
 -13.800  -1.1629   0.02800   0.02398  -0.0673   1.0000   0.0149
 -13.900  -1.1643   0.02852   0.02453  -0.0682   1.0000   0.0149
 -14.000  -1.1657   0.02908   0.02514  -0.0689   1.0000   0.0148
 -14.100  -1.1668   0.02970   0.02580  -0.0695   1.0000   0.0147
 -14.200  -1.1676   0.03040   0.02653  -0.0700   1.0000   0.0146
 -14.300  -1.1682   0.03117   0.02734  -0.0703   1.0000   0.0146
 -14.400  -1.1684   0.03202   0.02824  -0.0704   1.0000   0.0145
 -14.500  -1.1686   0.03296   0.02922  -0.0703   1.0000   0.0145
 -14.600  -1.1680   0.03406   0.03037  -0.0700   1.0000   0.0144
 -14.700  -1.1673   0.03526   0.03161  -0.0694   1.0000   0.0143
 -14.800  -1.1659   0.03668   0.03309  -0.0686   1.0000   0.0143
 -14.900  -1.1638   0.03831   0.03477  -0.0674   1.0000   0.0143
 -15.000  -1.1607   0.04022   0.03674  -0.0659   1.0000   0.0142
 -15.100  -1.1573   0.04234   0.03892  -0.0641   1.0000   0.0142
 -15.200  -1.1530   0.04473   0.04138  -0.0620   1.0000   0.0142
 -15.300  -1.1470   0.04752   0.04424  -0.0596   1.0000   0.0141
 -15.400  -1.1399   0.05055   0.04734  -0.0571   1.0000   0.0141
 -15.500  -1.1312   0.05390   0.05076  -0.0544   1.0000   0.0141
 -15.600  -1.1210   0.05743   0.05437  -0.0517   1.0000   0.0141
 -15.700  -1.1095   0.06111   0.05811  -0.0492   1.0000   0.0141
 -15.800  -1.0966   0.06493   0.06200  -0.0466   1.0000   0.0142
 -15.900  -1.0823   0.06889   0.06602  -0.0441   1.0000   0.0142
 -16.000  -1.0670   0.07296   0.07016  -0.0415   1.0000   0.0142
 -16.100  -1.0511   0.07713   0.07439  -0.0390   1.0000   0.0143
 -16.200  -1.0335   0.08153   0.07886  -0.0364   1.0000   0.0143
 -16.300  -1.0168   0.08582   0.08321  -0.0339   1.0000   0.0143
 -16.400  -0.9996   0.09022   0.08767  -0.0313   1.0000   0.0144
 -16.500  -0.9824   0.09463   0.09214  -0.0288   1.0000   0.0144
 -16.600  -0.9638   0.09942   0.09699  -0.0261   1.0000   0.0145
 -16.700  -0.9446   0.10453   0.10216  -0.0232   1.0000   0.0145
 -16.800  -0.9232   0.11017   0.10788  -0.0200   1.0000   0.0146
 -16.900  -0.9000   0.11637   0.11415  -0.0166   1.0000   0.0146
